Version 4
SHEET 1 880 680
WIRE 112 -16 -336 -16
WIRE 240 48 16 48
WIRE -336 112 -336 -16
WIRE 112 144 112 -16
WIRE 16 160 16 128
WIRE 80 160 16 160
WIRE 16 176 16 160
WIRE 240 176 240 48
WIRE 240 176 144 176
WIRE 80 192 64 192
WIRE -336 240 -336 192
WIRE -256 240 -336 240
WIRE 64 272 64 192
WIRE 240 272 240 256
WIRE 240 272 64 272
WIRE -336 288 -336 240
WIRE 240 288 240 272
WIRE -256 368 -256 240
WIRE 16 368 16 240
WIRE 16 368 -256 368
WIRE 240 368 16 368
WIRE -336 496 -336 368
WIRE -16 496 -336 496
WIRE 112 496 112 208
WIRE 112 496 -16 496
WIRE -16 560 -16 496
FLAG -16 560 0
SYMBOL AutoGenerated\\LM358 96 176 R0
SYMATTR InstName U1
SYMBOL res 224 160 R0
SYMATTR InstName R1
SYMATTR Value 2.4k
SYMBOL res 224 272 R0
SYMATTR InstName R2
SYMATTR Value 6.8k
SYMBOL res 32 144 R180
WINDOW 0 36 76 Left 2
WINDOW 3 36 40 Left 2
SYMATTR InstName R3
SYMATTR Value 2.45k
SYMBOL cap 32 176 M0
SYMATTR InstName C1
SYMATTR Value 100n
SYMBOL voltage -336 272 R0
WINDOW 123 0 0 Left 0
WINDOW 39 0 0 Left 0
SYMATTR InstName V1
SYMATTR Value 5.75
SYMBOL voltage -336 96 R0
WINDOW 123 0 0 Left 0
WINDOW 39 0 0 Left 0
SYMATTR InstName V2
SYMATTR Value 6.25
TEXT -370 584 Left 2 !.tran 60m
